
OS:Version,
  {c4251567-bace-4aee-9cd7-196cf74fa762}, !- Handle
  3.1.0;                                  !- Version Identifier

OS:Site,
  {ef4dd2fc-c906-4d26-a0f8-b44ab2f202b5}, !- Handle
  Broomfield Jeffco  Boulder   S,         !- Name
  40.13,                                  !- Latitude {deg}
  40.13,                                  !- Longitude {deg}
  -7,                                     !- Time Zone {hr}
  1689,                                   !- Elevation {m}
  ;                                       !- Terrain

OS:YearDescription,
  {53f65af6-ebf1-4c4e-965b-9852eafdcef9}, !- Handle
  ,                                       !- Calendar Year
  Sunday;                                 !- Day of Week for Start Day

OS:ClimateZones,
  {82933546-2b11-4a83-af2a-f078261237b5}, !- Handle
  ASHRAE,                                 !- Climate Zone Institution Name 1
  ANSI/ASHRAE Standard 169,               !- Climate Zone Document Name 1
  2006,                                   !- Climate Zone Document Year 1
  ,                                       !- Climate Zone Value 1
  CEC,                                    !- Climate Zone Institution Name 2
  California Climate Zone Descriptions,   !- Climate Zone Document Name 2
  1995,                                   !- Climate Zone Document Year 2
  ;                                       !- Climate Zone Value 2

OS:Building,
  {01c80918-92bc-439b-88eb-820adc603404}, !- Handle
  Building 1,                             !- Name
  ,                                       !- Building Sector Type
  -0,                                     !- North Axis {deg}
  ,                                       !- Nominal Floor to Floor Height {m}
  {5626772e-e4b5-4916-a858-ec64414cbf71}, !- Space Type Name
  {b84f08ea-ccc9-46ed-8004-ce85b659051c}, !- Default Construction Set Name
  {37da0210-0cd6-4d00-87be-7d9d208cc99a}; !- Default Schedule Set Name

OS:Facility,
  {54d278e9-8138-414d-b103-cb8138afe765}; !- Handle

OS:SimulationControl,
  {af7762a7-611c-4bbc-8120-d4b7a926dba6}; !- Handle

OS:Sizing:Parameters,
  {2a7a8686-a523-4fe1-b826-08976a207bc5}, !- Handle
  1.25,                                   !- Heating Sizing Factor
  1.15;                                   !- Cooling Sizing Factor

OS:Timestep,
  {812074b9-40e3-4bf0-abce-24addd989b98}, !- Handle
  1;                                      !- Number of Timesteps per Hour

OS:ShadowCalculation,
  {4ade6f2c-4736-4457-95e9-a7c61f7a53cc}, !- Handle
  PolygonClipping,                        !- Shading Calculation Method
  ,                                       !- Shading Calculation Update Frequency Method
  20,                                     !- Shading Calculation Update Frequency
  15000,                                  !- Maximum Figures in Shadow Overlap Calculations
  ,                                       !- Polygon Clipping Algorithm
  512,                                    !- Pixel Counting Resolution
  ,                                       !- Sky Diffuse Modeling Algorithm
  No,                                     !- Output External Shading Calculation Results
  No,                                     !- Disable Self-Shading Within Shading Zone Groups
  No;                                     !- Disable Self-Shading From Shading Zone Groups to Other Zones

OS:HeatBalanceAlgorithm,
  {13ed4ea3-4e0b-4317-9d23-8cba09ae64dd}, !- Handle
  ConductionTransferFunction,             !- Algorithm
  200;                                    !- Surface Temperature Upper Limit {C}

OS:RunPeriod,
  {d3f70068-1ae3-45a7-b8ce-28d0d508fe50}, !- Handle
  Run Period 1,                           !- Name
  1,                                      !- Begin Month
  1,                                      !- Begin Day of Month
  12,                                     !- End Month
  31,                                     !- End Day of Month
  ,                                       !- Use Weather File Holidays and Special Days
  ,                                       !- Use Weather File Daylight Saving Period
  ,                                       !- Apply Weekend Holiday Rule
  ,                                       !- Use Weather File Rain Indicators
  ,                                       !- Use Weather File Snow Indicators
  ;                                       !- Number of Times Runperiod to be Repeated

OS:LifeCycleCost:Parameters,
  {e54b408a-900a-4a9e-9003-2c68a0d3588b}, !- Handle
  ,                                       !- Analysis Type
  ,                                       !- Discounting Convention
  ,                                       !- Inflation Approach
  ,                                       !- Real Discount Rate
  ,                                       !- Nominal Discount Rate
  ,                                       !- Inflation
  ,                                       !- Base Date Month
  ,                                       !- Base Date Year
  ,                                       !- Service Date Month
  ,                                       !- Service Date Year
  ;                                       !- Length of Study Period in Years

OS:WeatherFile,
  {b9c46335-e455-4f85-87d4-a3b42ede9b37}, !- Handle
  Broomfield Jeffco  Boulder   S,         !- City
  CO,                                     !- State Province Region
  USA,                                    !- Country
  TMY3,                                   !- Data Source
  724699,                                 !- WMO Number
  40.13,                                  !- Latitude {deg}
  -105.24,                                !- Longitude {deg}
  -7,                                     !- Time Zone {hr}
  1689,                                   !- Elevation {m}
  USA_CO_Boulder-Broomfield-Jefferson.County.AP.724699_TMY3.epw, !- Url
  AC900369;                               !- Checksum

OS:SizingPeriod:DesignDay,
  {d940146e-e488-4ebe-9e33-cc32949aade3}, !- Handle
  Denver Centennial  Golden   N Ann Htg 99.6% Condns DB, !- Name
  -18.8,                                  !- Maximum Dry-Bulb Temperature {C}
  0,                                      !- Daily Dry-Bulb Temperature Range {deltaC}
  -18.8,                                  !- Humidity Indicating Conditions at Maximum Dry-Bulb
  81198,                                  !- Barometric Pressure {Pa}
  3,                                      !- Wind Speed {m/s}
  340,                                    !- Wind Direction {deg}
  0,                                      !- Sky Clearness
  0,                                      !- Rain Indicator
  0,                                      !- Snow Indicator
  21,                                     !- Day of Month
  12,                                     !- Month
  WinterDesignDay,                        !- Day Type
  0,                                      !- Daylight Saving Time Indicator
  Wetbulb,                                !- Humidity Indicating Type
  ,                                       !- Humidity Indicating Day Schedule Name
  DefaultMultipliers,                     !- Dry-Bulb Temperature Range Modifier Type
  ,                                       !- Dry-Bulb Temperature Range Modifier Schedule Name
  ASHRAEClearSky;                         !- Solar Model Indicator

OS:SizingPeriod:DesignDay,
  {76102579-366f-4d48-bd7b-9f5cecd99627}, !- Handle
  Denver Centennial  Golden   N Ann Hum_n 99.6% Condns DP=>MCDB, !- Name
  -10.9,                                  !- Maximum Dry-Bulb Temperature {C}
  0,                                      !- Daily Dry-Bulb Temperature Range {deltaC}
  -21.6,                                  !- Humidity Indicating Conditions at Maximum Dry-Bulb
  81198,                                  !- Barometric Pressure {Pa}
  3,                                      !- Wind Speed {m/s}
  340,                                    !- Wind Direction {deg}
  0,                                      !- Sky Clearness
  0,                                      !- Rain Indicator
  0,                                      !- Snow Indicator
  21,                                     !- Day of Month
  12,                                     !- Month
  WinterDesignDay,                        !- Day Type
  0,                                      !- Daylight Saving Time Indicator
  Dewpoint,                               !- Humidity Indicating Type
  ,                                       !- Humidity Indicating Day Schedule Name
  DefaultMultipliers,                     !- Dry-Bulb Temperature Range Modifier Type
  ,                                       !- Dry-Bulb Temperature Range Modifier Schedule Name
  ASHRAEClearSky;                         !- Solar Model Indicator

OS:SizingPeriod:DesignDay,
  {1f66889f-1840-490b-ac0b-e0d3d3cc3b8c}, !- Handle
  Denver Centennial  Golden   N Ann Htg Wind 99.6% Condns WS=>MCDB, !- Name
  3.9,                                    !- Maximum Dry-Bulb Temperature {C}
  0,                                      !- Daily Dry-Bulb Temperature Range {deltaC}
  3.9,                                    !- Humidity Indicating Conditions at Maximum Dry-Bulb
  81198,                                  !- Barometric Pressure {Pa}
  12.2,                                   !- Wind Speed {m/s}
  340,                                    !- Wind Direction {deg}
  0,                                      !- Sky Clearness
  0,                                      !- Rain Indicator
  0,                                      !- Snow Indicator
  21,                                     !- Day of Month
  12,                                     !- Month
  WinterDesignDay,                        !- Day Type
  0,                                      !- Daylight Saving Time Indicator
  Wetbulb,                                !- Humidity Indicating Type
  ,                                       !- Humidity Indicating Day Schedule Name
  DefaultMultipliers,                     !- Dry-Bulb Temperature Range Modifier Type
  ,                                       !- Dry-Bulb Temperature Range Modifier Schedule Name
  ASHRAEClearSky;                         !- Solar Model Indicator

OS:SizingPeriod:DesignDay,
  {cf84cc61-9fec-4a41-b518-0dfdaf3e4c33}, !- Handle
  Denver Centennial  Golden   N Ann Clg .4% Condns DB=>MWB, !- Name
  33,                                     !- Maximum Dry-Bulb Temperature {C}
  15.2,                                   !- Daily Dry-Bulb Temperature Range {deltaC}
  15.7,                                   !- Humidity Indicating Conditions at Maximum Dry-Bulb
  81198,                                  !- Barometric Pressure {Pa}
  4.9,                                    !- Wind Speed {m/s}
  0,                                      !- Wind Direction {deg}
  0,                                      !- Sky Clearness
  0,                                      !- Rain Indicator
  0,                                      !- Snow Indicator
  21,                                     !- Day of Month
  7,                                      !- Month
  SummerDesignDay,                        !- Day Type
  0,                                      !- Daylight Saving Time Indicator
  Wetbulb,                                !- Humidity Indicating Type
  ,                                       !- Humidity Indicating Day Schedule Name
  DefaultMultipliers,                     !- Dry-Bulb Temperature Range Modifier Type
  ,                                       !- Dry-Bulb Temperature Range Modifier Schedule Name
  ASHRAETau,                              !- Solar Model Indicator
  ,                                       !- Beam Solar Day Schedule Name
  ,                                       !- Diffuse Solar Day Schedule Name
  0.424,                                  !- ASHRAE Taub {dimensionless}
  2.025;                                  !- ASHRAE Taud {dimensionless}

OS:SizingPeriod:DesignDay,
  {d8a398ad-3e72-4f3e-8512-821f310d74d5}, !- Handle
  Denver Centennial  Golden   N Ann Clg .4% Condns WB=>MDB, !- Name
  27.3,                                   !- Maximum Dry-Bulb Temperature {C}
  15.2,                                   !- Daily Dry-Bulb Temperature Range {deltaC}
  18.4,                                   !- Humidity Indicating Conditions at Maximum Dry-Bulb
  81198,                                  !- Barometric Pressure {Pa}
  4.9,                                    !- Wind Speed {m/s}
  0,                                      !- Wind Direction {deg}
  0,                                      !- Sky Clearness
  0,                                      !- Rain Indicator
  0,                                      !- Snow Indicator
  21,                                     !- Day of Month
  7,                                      !- Month
  SummerDesignDay,                        !- Day Type
  0,                                      !- Daylight Saving Time Indicator
  Wetbulb,                                !- Humidity Indicating Type
  ,                                       !- Humidity Indicating Day Schedule Name
  DefaultMultipliers,                     !- Dry-Bulb Temperature Range Modifier Type
  ,                                       !- Dry-Bulb Temperature Range Modifier Schedule Name
  ASHRAETau,                              !- Solar Model Indicator
  ,                                       !- Beam Solar Day Schedule Name
  ,                                       !- Diffuse Solar Day Schedule Name
  0.424,                                  !- ASHRAE Taub {dimensionless}
  2.025;                                  !- ASHRAE Taud {dimensionless}

OS:SizingPeriod:DesignDay,
  {4d79b842-e0f0-4c20-9b27-6f9a06309804}, !- Handle
  Denver Centennial  Golden   N Ann Clg .4% Condns DP=>MDB, !- Name
  20.2,                                   !- Maximum Dry-Bulb Temperature {C}
  15.2,                                   !- Daily Dry-Bulb Temperature Range {deltaC}
  16.1,                                   !- Humidity Indicating Conditions at Maximum Dry-Bulb
  81198,                                  !- Barometric Pressure {Pa}
  4.9,                                    !- Wind Speed {m/s}
  0,                                      !- Wind Direction {deg}
  0,                                      !- Sky Clearness
  0,                                      !- Rain Indicator
  0,                                      !- Snow Indicator
  21,                                     !- Day of Month
  7,                                      !- Month
  SummerDesignDay,                        !- Day Type
  0,                                      !- Daylight Saving Time Indicator
  Dewpoint,                               !- Humidity Indicating Type
  ,                                       !- Humidity Indicating Day Schedule Name
  DefaultMultipliers,                     !- Dry-Bulb Temperature Range Modifier Type
  ,                                       !- Dry-Bulb Temperature Range Modifier Schedule Name
  ASHRAETau,                              !- Solar Model Indicator
  ,                                       !- Beam Solar Day Schedule Name
  ,                                       !- Diffuse Solar Day Schedule Name
  0.424,                                  !- ASHRAE Taub {dimensionless}
  2.025;                                  !- ASHRAE Taud {dimensionless}

OS:SizingPeriod:DesignDay,
  {1df51975-fe8b-4da1-9dfb-96aa4558ebe1}, !- Handle
  Denver Centennial  Golden   N Ann Clg .4% Condns Enth=>MDB, !- Name
  27.3,                                   !- Maximum Dry-Bulb Temperature {C}
  15.2,                                   !- Daily Dry-Bulb Temperature Range {deltaC}
  59700,                                  !- Humidity Indicating Conditions at Maximum Dry-Bulb
  81198,                                  !- Barometric Pressure {Pa}
  4.9,                                    !- Wind Speed {m/s}
  0,                                      !- Wind Direction {deg}
  0,                                      !- Sky Clearness
  0,                                      !- Rain Indicator
  0,                                      !- Snow Indicator
  21,                                     !- Day of Month
  7,                                      !- Month
  SummerDesignDay,                        !- Day Type
  0,                                      !- Daylight Saving Time Indicator
  Enthalpy,                               !- Humidity Indicating Type
  ,                                       !- Humidity Indicating Day Schedule Name
  DefaultMultipliers,                     !- Dry-Bulb Temperature Range Modifier Type
  ,                                       !- Dry-Bulb Temperature Range Modifier Schedule Name
  ASHRAETau,                              !- Solar Model Indicator
  ,                                       !- Beam Solar Day Schedule Name
  ,                                       !- Diffuse Solar Day Schedule Name
  0.424,                                  !- ASHRAE Taub {dimensionless}
  2.025;                                  !- ASHRAE Taud {dimensionless}

OS:DefaultScheduleSet,
  {37da0210-0cd6-4d00-87be-7d9d208cc99a}, !- Handle
  189.1-2009 - Office - WholeBuilding - Sm Office - CZ4-8 Schedule Set, !- Name
  ,                                       !- Hours of Operation Schedule Name
  {7cf9ee85-9c5a-47c1-9288-cfb73e644723}, !- Number of People Schedule Name
  {471d340c-8904-4d0c-9cbc-e8e2a2b652eb}, !- People Activity Level Schedule Name
  {3427adf2-65fd-436e-9493-5decbbd0329c}, !- Lighting Schedule Name
  {00d96bff-7d79-4d0b-950b-066eca6c83cd}, !- Electric Equipment Schedule Name
  ,                                       !- Gas Equipment Schedule Name
  ,                                       !- Hot Water Equipment Schedule Name
  {f9b8ddf4-efd4-48a1-9968-bc9e126e9b7b}, !- Infiltration Schedule Name
  ,                                       !- Steam Equipment Schedule Name
  ;                                       !- Other Equipment Schedule Name

OS:Schedule:Ruleset,
  {7cf9ee85-9c5a-47c1-9288-cfb73e644723}, ! Handle
  Small Office Bldg Occ,                  ! Name
  {d6df4b4b-f69a-466a-9584-90ab029652f0}, ! Schedule Type Limits Name
  {e9af9ba2-c8ce-40ac-b5ae-013fdf4d04f4}, ! Default Day Schedule Name
  {a5de4aee-811d-4560-b3c0-ffb5427cd212}, ! Summer Design Day Schedule Name
  {d91f1351-2b31-4def-be53-0bd47722d291}; ! Winter Design Day Schedule Name

OS:Schedule:Day,
  {e9af9ba2-c8ce-40ac-b5ae-013fdf4d04f4}, ! Handle
  Small Office Bldg Occ Default Schedule, ! Name
  {d6df4b4b-f69a-466a-9584-90ab029652f0}, ! Schedule Type Limits Name
  ,                                       ! Interpolate to Timestep
  6,                                      !- Hour 1
  0,                                      !- Minute 1
  0,                                      !- Value Until Time 1
  7,                                      !- Hour 2
  0,                                      !- Minute 2
  0.1,                                    !- Value Until Time 2
  8,                                      !- Hour 3
  0,                                      !- Minute 3
  0.2,                                    !- Value Until Time 3
  12,                                     !- Hour 4
  0,                                      !- Minute 4
  0.95,                                   !- Value Until Time 4
  13,                                     !- Hour 5
  0,                                      !- Minute 5
  0.5,                                    !- Value Until Time 5
  17,                                     !- Hour 6
  0,                                      !- Minute 6
  0.95,                                   !- Value Until Time 6
  18,                                     !- Hour 7
  0,                                      !- Minute 7
  0.3,                                    !- Value Until Time 7
  20,                                     !- Hour 8
  0,                                      !- Minute 8
  0.1,                                    !- Value Until Time 8
  24,                                     !- Hour 9
  0,                                      !- Minute 9
  0.05;                                   !- Value Until Time 9

OS:Schedule:Day,
  {a5de4aee-811d-4560-b3c0-ffb5427cd212}, ! Handle
  Small Office Bldg Occ Summer Design Day, ! Name
  {d6df4b4b-f69a-466a-9584-90ab029652f0}, ! Schedule Type Limits Name
  ,                                       ! Interpolate to Timestep
  6,                                      ! Hour 1
  0,                                      ! Minute 1
  0,                                      ! Value Until Time 1
  22,                                     ! Hour 2
  0,                                      ! Minute 2
  1,                                      ! Value Until Time 2
  24,                                     ! Hour 3
  0,                                      ! Minute 3
  0.050000000000000003;                   ! Value Until Time 3

OS:Schedule:Day,
  {d91f1351-2b31-4def-be53-0bd47722d291}, ! Handle
  Small Office Bldg Occ Winter Design Day, ! Name
  {d6df4b4b-f69a-466a-9584-90ab029652f0}, ! Schedule Type Limits Name
  ,                                       ! Interpolate to Timestep
  24,                                     ! Hour 1
  0,                                      ! Minute 1
  0;                                      ! Value Until Time 1

OS:Schedule:Rule,
  {e78cfd31-0ae3-4195-97e1-0d73e9656b53}, !- Handle
  Small Office Bldg Occ Rule 1,           !- Name
  {7cf9ee85-9c5a-47c1-9288-cfb73e644723}, !- Schedule Ruleset Name
  0,                                      !- Rule Order
  {6ca0e836-c3ba-4c32-ad14-af20b0610173}, !- Day Schedule Name
  Yes,                                    !- Apply Sunday
  No,                                     !- Apply Monday
  No,                                     !- Apply Tuesday
  No,                                     !- Apply Wednesday
  No,                                     !- Apply Thursday
  No,                                     !- Apply Friday
  No,                                     !- Apply Saturday
  DateRange,                              !- Date Specification Type
  1,                                      !- Start Month
  1,                                      !- Start Day
  12,                                     !- End Month
  31;                                     !- End Day

OS:Schedule:Rule,
  {c8952016-af4c-49fa-be9b-629b31a4e6f7}, !- Handle
  Small Office Bldg Occ Rule 2,           !- Name
  {7cf9ee85-9c5a-47c1-9288-cfb73e644723}, !- Schedule Ruleset Name
  1,                                      !- Rule Order
  {3553641c-23e1-4595-a3e9-02b362e537fc}, !- Day Schedule Name
  No,                                     !- Apply Sunday
  No,                                     !- Apply Monday
  No,                                     !- Apply Tuesday
  No,                                     !- Apply Wednesday
  No,                                     !- Apply Thursday
  No,                                     !- Apply Friday
  Yes,                                    !- Apply Saturday
  DateRange,                              !- Date Specification Type
  1,                                      !- Start Month
  1,                                      !- Start Day
  12,                                     !- End Month
  31;                                     !- End Day

OS:Schedule:Day,
  {6ca0e836-c3ba-4c32-ad14-af20b0610173}, ! Handle
  Small Office Bldg Occ Rule 1 Day Schedule, ! Name
  {d6df4b4b-f69a-466a-9584-90ab029652f0}, ! Schedule Type Limits Name
  ,                                       ! Interpolate to Timestep
  24,                                     ! Hour 1
  0,                                      ! Minute 1
  0;                                      ! Value Until Time 1

OS:Schedule:Day,
  {3553641c-23e1-4595-a3e9-02b362e537fc}, ! Handle
  Small Office Bldg Occ Rule 2 Day Schedule, ! Name
  {d6df4b4b-f69a-466a-9584-90ab029652f0}, ! Schedule Type Limits Name
  ,                                       ! Interpolate to Timestep
  6,                                      ! Hour 1
  0,                                      ! Minute 1
  0,                                      ! Value Until Time 1
  8,                                      ! Hour 2
  0,                                      ! Minute 2
  0.10000000000000001,                    ! Value Until Time 2
  12,                                     ! Hour 3
  0,                                      ! Minute 3
  0.29999999999999999,                    ! Value Until Time 3
  17,                                     ! Hour 4
  0,                                      ! Minute 4
  0.10000000000000001,                    ! Value Until Time 4
  24,                                     ! Hour 5
  0,                                      ! Minute 5
  0;                                      ! Value Until Time 5

OS:Schedule:Ruleset,
  {471d340c-8904-4d0c-9cbc-e8e2a2b652eb}, ! Handle
  Small Office Activity,                  ! Name
  {fb26a88e-1915-4fa4-9741-f2f3ade8c3cc}, ! Schedule Type Limits Name
  {d6bdd77b-8fe5-4719-9804-5daf011571ba}, ! Default Day Schedule Name
  {e0dfdd09-c7d2-46ac-a04c-88553785e1fa}, ! Summer Design Day Schedule Name
  {570352fe-493d-4559-ba8b-a582c676f535}; ! Winter Design Day Schedule Name

OS:Schedule:Day,
  {d6bdd77b-8fe5-4719-9804-5daf011571ba}, ! Handle
  Small Office Activity Default Schedule, ! Name
  {fb26a88e-1915-4fa4-9741-f2f3ade8c3cc}, ! Schedule Type Limits Name
  ,                                       ! Interpolate to Timestep
  24,                                     !- Hour 1
  0,                                      !- Minute 1
  120;                                    !- Value Until Time 1

OS:Schedule:Day,
  {e0dfdd09-c7d2-46ac-a04c-88553785e1fa}, ! Handle
  Small Office Activity Summer Design Day, ! Name
  {fb26a88e-1915-4fa4-9741-f2f3ade8c3cc}, ! Schedule Type Limits Name
  ,                                       ! Interpolate to Timestep
  24,                                     ! Hour 1
  0,                                      ! Minute 1
  120;                                    ! Value Until Time 1

OS:Schedule:Day,
  {570352fe-493d-4559-ba8b-a582c676f535}, ! Handle
  Small Office Activity Winter Design Day, ! Name
  {fb26a88e-1915-4fa4-9741-f2f3ade8c3cc}, ! Schedule Type Limits Name
  ,                                       ! Interpolate to Timestep
  24,                                     ! Hour 1
  0,                                      ! Minute 1
  120;                                    ! Value Until Time 1

OS:Schedule:Ruleset,
  {3427adf2-65fd-436e-9493-5decbbd0329c}, ! Handle
  Office Bldg Light,                      ! Name
  {a5fa1f58-a783-403d-90b7-164e9e047e26}, ! Schedule Type Limits Name
  {3e1668bd-e5ed-4fc0-8b12-d20da86e4b99}, ! Default Day Schedule Name
  {f1f82540-fdee-4ce6-905b-30f941ae5997}, ! Summer Design Day Schedule Name
  {8340cecd-8073-453f-aa75-6731b1999bc1}; ! Winter Design Day Schedule Name

OS:Schedule:Day,
  {3e1668bd-e5ed-4fc0-8b12-d20da86e4b99}, ! Handle
  Office Bldg Light Default Schedule,     ! Name
  {a5fa1f58-a783-403d-90b7-164e9e047e26}, ! Schedule Type Limits Name
  ,                                       ! Interpolate to Timestep
  5,                                      !- Hour 1
  0,                                      !- Minute 1
  0.05,                                   !- Value Until Time 1
  7,                                      !- Hour 2
  0,                                      !- Minute 2
  0.1,                                    !- Value Until Time 2
  8,                                      !- Hour 3
  0,                                      !- Minute 3
  0.3,                                    !- Value Until Time 3
  17,                                     !- Hour 4
  0,                                      !- Minute 4
  0.9,                                    !- Value Until Time 4
  18,                                     !- Hour 5
  0,                                      !- Minute 5
  0.7,                                    !- Value Until Time 5
  20,                                     !- Hour 6
  0,                                      !- Minute 6
  0.5,                                    !- Value Until Time 6
  22,                                     !- Hour 7
  0,                                      !- Minute 7
  0.3,                                    !- Value Until Time 7
  23,                                     !- Hour 8
  0,                                      !- Minute 8
  0.1,                                    !- Value Until Time 8
  24,                                     !- Hour 9
  0,                                      !- Minute 9
  0.05;                                   !- Value Until Time 9

OS:Schedule:Day,
  {f1f82540-fdee-4ce6-905b-30f941ae5997}, ! Handle
  Office Bldg Light Summer Design Day,    ! Name
  {a5fa1f58-a783-403d-90b7-164e9e047e26}, ! Schedule Type Limits Name
  ,                                       ! Interpolate to Timestep
  24,                                     ! Hour 1
  0,                                      ! Minute 1
  1;                                      ! Value Until Time 1

OS:Schedule:Day,
  {8340cecd-8073-453f-aa75-6731b1999bc1}, ! Handle
  Office Bldg Light Winter Design Day,    ! Name
  {a5fa1f58-a783-403d-90b7-164e9e047e26}, ! Schedule Type Limits Name
  ,                                       ! Interpolate to Timestep
  24,                                     ! Hour 1
  0,                                      ! Minute 1
  0;                                      ! Value Until Time 1

OS:Schedule:Rule,
  {a420c4c0-2256-40fa-b7cb-b48fe49144bc}, !- Handle
  Office Bldg Light Rule 1,               !- Name
  {3427adf2-65fd-436e-9493-5decbbd0329c}, !- Schedule Ruleset Name
  0,                                      !- Rule Order
  {80ecb51a-fc61-4e04-b1d7-7417bc0e7cda}, !- Day Schedule Name
  Yes,                                    !- Apply Sunday