
Version,
  9.6;                                    !- Version Identifier

Timestep,
  1;                                      !- Number of Timesteps per Hour

LifeCycleCost:Parameters,
  Life Cycle Cost Parameters,             !- Name
  EndOfYear,                              !- Discounting Convention
  ConstantDollar,                         !- Inflation Approach
  0.03,                                   !- Real Discount Rate
  ,                                       !- Nominal Discount Rate
  ,                                       !- Inflation
  ,                                       !- Base Date Month
  2011,                                   !- Base Date Year
  ,                                       !- Service Date Month
  2011,                                   !- Service Date Year
  25,                                     !- Length of Study Period in Years
  ,                                       !- Tax rate
  None;                                   !- Depreciation Method

LifeCycleCost:UsePriceEscalation,
  U.S. Avg  Commercial-Electricity,       !- Name
  Electricity,                            !- Resource
  2011,                                   !- Escalation Start Year
  January,                                !- Escalation Start Month
  0.9838,                                 !- Year Escalation 1
  0.9730,                                 !- Year Escalation 2
  0.9632,                                 !- Year Escalation 3
  0.9611,                                 !- Year Escalation 4
  0.9571,                                 !- Year Escalation 5
  0.9553,                                 !- Year Escalation 6
  0.9539,                                 !- Year Escalation 7
  0.9521,                                 !- Year Escalation 8
  0.9546,                                 !- Year Escalation 9
  0.9550,                                 !- Year Escalation 10
  0.9553,                                 !- Year Escalation 11
  0.9564,                                 !- Year Escalation 12
  0.9575,                                 !- Year Escalation 13
  0.9596,                                 !- Year Escalation 14
  0.9618,                                 !- Year Escalation 15
  0.9614,                                 !- Year Escalation 16
  0.9618,                                 !- Year Escalation 17
  0.9618,                                 !- Year Escalation 18
  0.9593,                                 !- Year Escalation 19
  0.9589,                                 !- Year Escalation 20
  0.9607,                                 !- Year Escalation 21
  0.9625,                                 !- Year Escalation 22
  0.9650,                                 !- Year Escalation 23
  0.9708,                                 !- Year Escalation 24
  0.9751,                                 !- Year Escalation 25
  0.9762,                                 !- Year Escalation 26
  0.9766,                                 !- Year Escalation 27
  0.9766,                                 !- Year Escalation 28
  0.9769,                                 !- Year Escalation 29
  0.9773;                                 !- Year Escalation 30

LifeCycleCost:UsePriceEscalation,
  U.S. Avg  Commercial-Distillate Oil,    !- Name
  FuelOilNo1,                             !- Resource
  2011,                                   !- Escalation Start Year
  January,                                !- Escalation Start Month
  0.9714,                                 !- Year Escalation 1
  0.9730,                                 !- Year Escalation 2
  0.9942,                                 !- Year Escalation 3
  1.0164,                                 !- Year Escalation 4
  1.0541,                                 !- Year Escalation 5
  1.0928,                                 !- Year Escalation 6
  1.1267,                                 !- Year Escalation 7
  1.1580,                                 !- Year Escalation 8
  1.1792,                                 !- Year Escalation 9
  1.1967,                                 !- Year Escalation 10
  1.2200,                                 !- Year Escalation 11
  1.2333,                                 !- Year Escalation 12
  1.2566,                                 !- Year Escalation 13
  1.2709,                                 !- Year Escalation 14
  1.2826,                                 !- Year Escalation 15
  1.2985,                                 !- Year Escalation 16
  1.3102,                                 !- Year Escalation 17
  1.3250,                                 !- Year Escalation 18
  1.3261,                                 !- Year Escalation 19
  1.3282,                                 !- Year Escalation 20
  1.3324,                                 !- Year Escalation 21
  1.3356,                                 !- Year Escalation 22
  1.3431,                                 !- Year Escalation 23
  1.3510,                                 !- Year Escalation 24
  1.3568,                                 !- Year Escalation 25
  1.3606,                                 !- Year Escalation 26
  1.3637,                                 !- Year Escalation 27
  1.3674,                                 !- Year Escalation 28
  1.3706,                                 !- Year Escalation 29
  1.3743;                                 !- Year Escalation 30

LifeCycleCost:UsePriceEscalation,
  U.S. Avg  Commercial-Residual Oil,      !- Name
  FuelOilNo2,                             !- Resource
  2011,                                   !- Escalation Start Year
  January,                                !- Escalation Start Month
  0.8469,                                 !- Year Escalation 1
  0.8257,                                 !- Year Escalation 2
  0.8681,                                 !- Year Escalation 3
  0.8988,                                 !- Year Escalation 4
  0.9289,                                 !- Year Escalation 5
  0.9604,                                 !- Year Escalation 6
  0.9897,                                 !- Year Escalation 7
  1.0075,                                 !- Year Escalation 8
  1.0314,                                 !- Year Escalation 9
  1.0554,                                 !- Year Escalation 10
  1.0861,                                 !- Year Escalation 11
  1.1278,                                 !- Year Escalation 12
  1.1497,                                 !- Year Escalation 13
  1.1620,                                 !- Year Escalation 14
  1.1743,                                 !- Year Escalation 15
  1.1852,                                 !- Year Escalation 16
  1.1948,                                 !- Year Escalation 17
  1.2037,                                 !- Year Escalation 18
  1.2071,                                 !- Year Escalation 19
  1.2119,                                 !- Year Escalation 20
  1.2139,                                 !- Year Escalation 21
  1.2194,                                 !- Year Escalation 22
  1.2276,                                 !- Year Escalation 23
  1.2365,                                 !- Year Escalation 24
  1.2420,                                 !- Year Escalation 25
  1.2461,                                 !- Year Escalation 26
  1.2509,                                 !- Year Escalation 27
  1.2550,                                 !- Year Escalation 28
  1.2591,                                 !- Year Escalation 29
  1.2638;                                 !- Year Escalation 30

LifeCycleCost:UsePriceEscalation,
  U.S. Avg  Commercial-Natural gas,       !- Name
  NaturalGas,                             !- Resource
  2011,                                   !- Escalation Start Year
  January,                                !- Escalation Start Month
  0.9823,                                 !- Year Escalation 1
  0.9557,                                 !- Year Escalation 2
  0.9279,                                 !- Year Escalation 3
  0.9257,                                 !- Year Escalation 4
  0.9346,                                 !- Year Escalation 5
  0.9412,                                 !- Year Escalation 6
  0.9512,                                 !- Year Escalation 7
  0.9645,                                 !- Year Escalation 8
  0.9856,                                 !- Year Escalation 9
  1.0067,                                 !- Year Escalation 10
  1.0222,                                 !- Year Escalation 11
  1.0410,                                 !- Year Escalation 12
  1.0610,                                 !- Year Escalation 13
  1.0787,                                 !- Year Escalation 14
  1.0942,                                 !- Year Escalation 15
  1.1098,                                 !- Year Escalation 16
  1.1220,                                 !- Year Escalation 17
  1.1308,                                 !- Year Escalation 18
  1.1386,                                 !- Year Escalation 19
  1.1486,                                 !- Year Escalation 20
  1.1619,                                 !- Year Escalation 21
  1.1763,                                 !- Year Escalation 22
  1.1918,                                 !- Year Escalation 23
  1.2118,                                 !- Year Escalation 24
  1.2284,                                 !- Year Escalation 25
  1.2439,                                 !- Year Escalation 26
  1.2605,                                 !- Year Escalation 27
  1.2772,                                 !- Year Escalation 28
  1.2938,                                 !- Year Escalation 29
  1.3115;                                 !- Year Escalation 30

LifeCycleCost:UsePriceEscalation,
  U.S. Avg  Commercial-Coal,              !- Name
  Coal,                                   !- Resource
  2011,                                   !- Escalation Start Year
  January,                                !- Escalation Start Month
  0.9970,                                 !- Year Escalation 1
  1.0089,                                 !- Year Escalation 2
  1.0089,                                 !- Year Escalation 3
  0.9941,                                 !- Year Escalation 4
  0.9941,                                 !- Year Escalation 5
  1.0000,                                 !- Year Escalation 6
  1.0030,                                 !- Year Escalation 7
  1.0059,                                 !- Year Escalation 8
  1.0089,                                 !- Year Escalation 9
  1.0119,                                 !- Year Escalation 10
  1.0148,                                 !- Year Escalation 11
  1.0178,                                 !- Year Escalation 12
  1.0208,                                 !- Year Escalation 13
  1.0267,                                 !- Year Escalation 14
  1.0297,                                 !- Year Escalation 15
  1.0356,                                 !- Year Escalation 16
  1.0415,                                 !- Year Escalation 17
  1.0534,                                 !- Year Escalation 18
  1.0564,                                 !- Year Escalation 19
  1.0593,                                 !- Year Escalation 20
  1.0653,                                 !- Year Escalation 21
  1.0712,                                 !- Year Escalation 22
  1.0742,                                 !- Year Escalation 23
  1.0801,                                 !- Year Escalation 24
  1.0831,                                 !- Year Escalation 25
  1.0831,                                 !- Year Escalation 26
  1.0861,                                 !- Year Escalation 27
  1.0890,                                 !- Year Escalation 28
  1.0920,                                 !- Year Escalation 29
  1.0950;                                 !- Year Escalation 30

Building,
  Building 1,                             !- Name
  -0,                                     !- North Axis {deg}
  ,                                       !- Terrain
  ,                                       !- Loads Convergence Tolerance Value {W}
  ,                                       !- Temperature Convergence Tolerance Value {deltaC}
  ,                                       !- Solar Distribution
  ,                                       !- Maximum Number of Warmup Days
  ;                                       !- Minimum Number of Warmup Days

Zone,
  Test Rename,                            !- Name
  0,                                      !- Direction of Relative North {deg}
  0,                                      !- X Origin {m}
  0,                                      !- Y Origin {m}
  0,                                      !- Z Origin {m}
  ,                                       !- Type
  1,                                      !- Multiplier
  ,                                       !- Ceiling Height {m}
  ,                                       !- Volume {m3}
  ,                                       !- Floor Area {m2}
  ,                                       !- Zone Inside Convection Algorithm
  ,                                       !- Zone Outside Convection Algorithm
  Yes;                                    !- Part of Total Floor Area

BuildingSurface:Detailed,
  Face 0,                                 !- Name
  Floor,                                  !- Surface Type
  ExtSlabCarpet 4in ClimateZone 1-8,      !- Construction Name
  Test Rename,                            !- Zone Name
  ,                                       !- Space Name
  Ground,                                 !- Outside Boundary Condition
  ,                                       !- Outside Boundary Condition Object
  NoSun,                                  !- Sun Exposure
  NoWind,                                 !- Wind Exposure
  ,                                       !- View Factor to Ground
  ,                                       !- Number of Vertices
  -4.572, 0, 0,                           !- X,Y,Z Vertex 1 {m}
  -4.572, 13.716, 0,                      !- X,Y,Z Vertex 2 {m}
  13.716, 13.716, 0,                      !- X,Y,Z Vertex 3 {m}
  13.716, 0, 0;                           !- X,Y,Z Vertex 4 {m}

BuildingSurface:Detailed,
  Face 1,                                 !- Name
  Roof,                                   !- Surface Type
  ASHRAE 189.1-2009 ExtRoof IEAD ClimateZone 2-5, !- Construction Name
  Test Rename,                            !- Zone Name
  ,                                       !- Space Name
  Outdoors,                               !- Outside Boundary Condition
  ,                                       !- Outside Boundary Condition Object
  SunExposed,                             !- Sun Exposure
  WindExposed,                            !- Wind Exposure
  ,                                       !- View Factor to Ground
  ,                                       !- Number of Vertices
  13.716, 0, 3.048,                       !- X,Y,Z Vertex 1 {m}
  13.716, 13.716, 3.048,                  !- X,Y,Z Vertex 2 {m}
  -4.572, 13.716, 3.048,                  !- X,Y,Z Vertex 3 {m}
  -4.572, 0, 3.048;                       !- X,Y,Z Vertex 4 {m}

BuildingSurface:Detailed,
  Face 2,                                 !- Name
  Wall,                                   !- Surface Type
  ASHRAE 189.1-2009 ExtWall Mass ClimateZone 5, !- Construction Name
  Test Rename,                            !- Zone Name
  ,                                       !- Space Name
  Outdoors,                               !- Outside Boundary Condition
  ,                                       !- Outside Boundary Condition Object
  SunExposed,                             !- Sun Exposure
  WindExposed,                            !- Wind Exposure
  ,                                       !- View Factor to Ground
  ,                                       !- Number of Vertices
  -4.572, 0, 3.048,                       !- X,Y,Z Vertex 1 {m}
  -4.572, 13.716, 3.048,                  !- X,Y,Z Vertex 2 {m}
  -4.572, 13.716, 0,                      !- X,Y,Z Vertex 3 {m}
  -4.572, 0, 0;                           !- X,Y,Z Vertex 4 {m}

BuildingSurface:Detailed,
  Face 3,                                 !- Name
  Wall,                                   !- Surface Type
  ASHRAE 189.1-2009 ExtWall Mass ClimateZone 5, !- Construction Name
  Test Rename,                            !- Zone Name
  ,                                       !- Space Name
  Outdoors,                               !- Outside Boundary Condition
  ,                                       !- Outside Boundary Condition Object
  SunExposed,                             !- Sun Exposure
  WindExposed,                            !- Wind Exposure
  ,                                       !- View Factor to Ground
  ,                                       !- Number of Vertices
  -4.572, 13.716, 3.048,                  !- X,Y,Z Vertex 1 {m}
  13.716, 13.716, 3.048,                  !- X,Y,Z Vertex 2 {m}
  13.716, 13.716, 0,                      !- X,Y,Z Vertex 3 {m}
  -4.572, 13.716, 0;                      !- X,Y,Z Vertex 4 {m}

BuildingSurface:Detailed,
  Face 4,                                 !- Name
  Wall,                                   !- Surface Type
  ASHRAE 189.1-2009 ExtWall Mass ClimateZone 5, !- Construction Name
  Test Rename,                            !- Zone Name
  ,                                       !- Space Name
  Outdoors,                               !- Outside Boundary Condition
  ,                                       !- Outside Boundary Condition Object
  SunExposed,                             !- Sun Exposure
  WindExposed,                            !- Wind Exposure
  ,                                       !- View Factor to Ground
  ,                                       !- Number of Vertices
  13.716, 13.716, 3.048,                  !- X,Y,Z Vertex 1 {m}
  13.716, 0, 3.048,                       !- X,Y,Z Vertex 2 {m}
  13.716, 0, 0,                           !- X,Y,Z Vertex 3 {m}
  13.716, 13.716, 0;                      !- X,Y,Z Vertex 4 {m}

BuildingSurface:Detailed,
  Face 5,                                 !- Name
  Wall,                                   !- Surface Type
  ASHRAE 189.1-2009 ExtWall Mass ClimateZone 5, !- Construction Name
  Test Rename,                            !- Zone Name
  ,                                       !- Space Name
  Outdoors,                               !- Outside Boundary Condition
  ,                                       !- Outside Boundary Condition Object
  SunExposed,                             !- Sun Exposure
  WindExposed,                            !- Wind Exposure
  ,                                       !- View Factor to Ground
  ,                                       !- Number of Vertices
  13.716, 0, 3.048,                       !- X,Y,Z Vertex 1 {m}
  -4.572, 0, 3.048,                       !- X,Y,Z Vertex 2 {m}
  -4.572, 0, 0,                           !- X,Y,Z Vertex 3 {m}
  13.716, 0, 0;                           !- X,Y,Z Vertex 4 {m}

ElectricEquipment,
  Test Load,                              !- Name
  Test Rename,                            !- Zone or ZoneList or Space or SpaceList Name
  Test Schedule,                          !- Schedule Name
  EquipmentLevel,                         !- Design Level Calculation Method
  490,                                    !- Design Level {W}
  ,                                       !- Watts per Zone Floor Area {W/m2}
  ,                                       !- Watts per Person {W/person}
  ,                                       !- Fraction Latent
  ,                                       !- Fraction Radiant
  ,                                       !- Fraction Lost
  General;                                !- End-Use Subcategory

Schedule:Compact,
  Test Schedule,                          !- Name
  Fractional,                             !- Schedule Type Limits Name
  Through: 01/01,                         !- Field 1
  For: AllDays,                           !- Field 2
  Until: 01:00,                           !- Field 3
  0.470715711752535,                      !- Field 4
  Until: 02:00,                           !- Field 5
  0.276039903349593,                      !- Field 6
  Until: 03:00,                           !- Field 7
  0.0215571486100571,                     !- Field 8
  Until: 04:00,                           !- Field 9
  0.742199059625499,                      !- Field 10
  Until: 05:00,                           !- Field 11
  0.927542892628874,                      !- Field 12
  Until: 06:00,                           !- Field 13
  0.238176212381882,                      !- Field 14
  Until: 07:00,                           !- Field 15
  0.604710996031641,                      !- Field 16
  Until: 08:00,                           !- Field 17
  0.710376334206772,                      !- Field 18
  Until: 09:00,                           !- Field 19
  0.942567296265078,                      !- Field 20
  Until: 10:00,                           !- Field 21
  0.739390477289411,                      !- Field 22
  Until: 11:00,                           !- Field 23
  0.349139424934836,                      !- Field 24
  Until: 12:00,                           !- Field 25
  0.580879632174461,                      !- Field 26
  Until: 13:00,                           !- Field 27
  0.501559130350662,                      !- Field 28
  Until: 14:00,                           !- Field 29
  0.695420517145773,                      !- Field 30
  Until: 15:00,                           !- Field 31
  0.970202186763763,                      !- Field 32
  Until: 16:00,                           !- Field 33
  0.841082845610263,                      !- Field 34
  Until: 17:00,                           !- Field 35
  0.400658824935561,                      !- Field 36
  Until: 18:00,                           !- Field 37
  0.799446528721183,                      !- Field 38
  Until: 19:00,                           !- Field 39
  0.820802393649804,                      !- Field 40
  Until: 20:00,                           !- Field 41
  0.346784381995442,                      !- Field 42
  Until: 21:00,                           !- Field 43
  0.435301385624742,                      !- Field 44
  Until: 22:00,                           !- Field 45
  0.251648006641999,                      !- Field 46
  Until: 23:00,                           !- Field 47
  0.597170394144842,                      !- Field 48
  Until: 24:00,                           !- Field 49
  0.886081566397184,                      !- Field 50
  Through: 01/02,                         !- Field 51
  For: AllDays,                           !- Field 52
  Until: 01:00,                           !- Field 53
  0.288967922547703,                      !- Field 54
  Until: 02:00,                           !- Field 55
  0.933189009747003,                      !- Field 56
  Until: 03:00,                           !- Field 57
  0.81798482875278,                       !- Field 58
  Until: 04:00,                           !- Field 59
  0.648852852746763,                      !- Field 60
  Until: 05:00,                           !- Field 61
  0.623938279096849,                      !- Field 62
  Until: 06:00,                           !- Field 63
  0.156042279315569,                      !- Field 64
  Until: 07:00,                           !- Field 65
  0.396205298672872,                      !- Field 66
  Until: 08:00,                           !- Field 67
  0.540618225039203,                      !- Field 68
  Until: 09:00,                           !- Field 69
  0.674760245327532,                      !- Field 70
  Until: 10:00,                           !- Field 71
  0.162256425597004,                      !- Field 72
  Until: 11:00,                           !- Field 73
  0.497670054884445,                      !- Field 74
  Until: 12:00,                           !- Field 75
  0.718615387000747,                      !- Field 76
  Until: 13:00,                           !- Field 77
  0.277848545541735,                      !- Field 78
  Until: 14:00,                           !- Field 79
  0.348909432132419,                      !- Field 80
  Until: 15:00,                           !- Field 81
  0.877916434784994,                      !- Field 82
  Until: 16:00,                           !- Field 83
  0.682111403031946,                      !- Field 84
  Until: 17:00,                           !- Field 85
  0.339364518219674,                      !- Field 86
  Until: 18:00,                           !- Field 87
  0.754998167609093,                      !- Field 88
  Until: 19:00,                           !- Field 89
  0.335038457884995,                      !- Field 90
  Until: 20:00,                           !- Field 91
  0.425964237465111,                      !- Field 92
  Until: 21:00,                           !- Field 93
  0.468123296047448,                      !- Field 94
  Until: 22:00,                           !- Field 95
  0.449884606161897,                      !- Field 96
  Until: 23:00,                           !- Field 97
  0.773626907706926,                      !- Field 98
  Until: 24:00,                           !- Field 99
  0.323753452814323,                      !- Field 100
  Through: 01/03,                         !- Field 101
  For: AllDays,                           !- Field 102
  Until: 01:00,                           !- Field 103
  0.0671681000957256,                     !- Field 104
  Until: 02:00,                           !- Field 105
  0.787591264849364,                      !- Field 106
  Until: 03:00,                           !- Field 107
  0.366744876503214,                      !- Field 108
  Until: 04:00,                           !- Field 109
  0.523547771937446,                      !- Field 110
  Until: 05:00,                           !- Field 111
  0.738157983158196,                      !- Field 112
  Until: 06:00,                           !- Field 113
  0.0914885333823698,                     !- Field 114
  Until: 07:00,                           !- Field 115
  0.553270616100192,                      !- Field 116
  Until: 08:00,                           !- Field 117
  0.487944324579375,                      !- Field 118
  Until: 09:00,                           !- Field 119
  0.65615539287134,                       !- Field 120
  Until: 10:00,                           !- Field 121
  0.733074395341243,                      !- Field 122
  Until: 11:00,                           !- Field 123
  0.632265998885986,                      !- Field 124
  Until: 12:00,                           !- Field 125
  0.95668252301818,                       !- Field 126
  Until: 13:00,                           !- Field 127
  0.292904510671043,                      !- Field 128
  Until: 14:00,                           !- Field 129
  0.76325414270873,                       !- Field 130
  Until: 15:00,                           !- Field 131
  0.621525127254501,                      !- Field 132
  Until: 16:00,                           !- Field 133
  0.432331386644062,                      !- Field 134
  Until: 17:00,                           !- Field 135
  0.462887810484701,                      !- Field 136
  Until: 18:00,                           !- Field 137
  0.557964478265789,                      !- Field 138
  Until: 19:00,                           !- Field 139
  0.322201976614897,                      !- Field 140
  Until: 20:00,                           !- Field 141
  0.121454161342013,                      !- Field 142
  Until: 21:00,                           !- Field 143
  0.600920536601509,                      !- Field 144
  Until: 22:00,                           !- Field 145
  0.286363066824151,                      !- Field 146
  Until: 23:00,                           !- Field 147
  0.0851262284152234,                     !- Field 148
  Until: 24:00,                           !- Field 149
  0.941183755035676,                      !- Field 150
  Through: 01/04,                         !- Field 151
  For: AllDays,                           !- Field 152
  Until: 01:00,                           !- Field 153
  0.396375869187279,                      !- Field 154
  Until: 02:00,                           !- Field 155
  0.370429495402677,                      !- Field 156
  Until: 03:00,                           !- Field 157
  0.780783465883506,                      !- Field 158
  Until: 04:00,                           !- Field 159
  0.0328375918336332,                     !- Field 160
  Until: 05:00,                           !- Field 161
  0.464483781138636,                      !- Field 162
  Until: 06:00,                           !- Field 163
  0.776870260570681,                      !- Field 164
  Until: 07:00,                           !- Field 165
  0.693765925174842,                      !- Field 166
  Until: 08:00,                           !- Field 167
  0.323093397902049,                      !- Field 168
  Until: 09:00,                           !- Field 169
  0.164069468890985,                      !- Field 170
  Until: 10:00,                           !- Field 171
  0.0933542317574306,                     !- Field 172
  Until: 11:00,                           !- Field 173
  0.418368128523264,                      !- Field 174
  Until: 12:00,                           !- Field 175
  0.149905202822337,                      !- Field 176
  Until: 13:00,                           !- Field 177
  0.545746856498601,                      !- Field 178
  Until: 14:00,                           !- Field 179
  0.328236207318432,                      !- Field 180
  Until: 15:00,                           !- Field 181
  0.687750424961801,                      !- Field 182
  Until: 16:00,                           !- Field 183